<?xml version='1.0' encoding='utf-8'?>
<routes xmlns:xsi="http://www.w3.org/2001/XMLSchema-instance" xsi:noNamespaceSchemaLocation="http://sumo.dlr.de/xsd/routes_file.xsd">
    <vType id="truck" length="7.50" minGap="4.50" maxSpeed="36.11" probability="0.80" speedFactor="normc(1.05,0.19,0.20,2.00)" vClass="truck" impatience="0.07" guiShape="truck" width="2.60" minGapLat="1.50" lcStrategic="2.82" lcCooperative="1.15" lcSpeedGain="16.93" lcKeepRight="0.87" lcSublane="2.00" lcImpatience="0.00" lcMaxSpeedLatStanding="0.00" lcSigma="0.11" accel="1.42" decel="3.19" sigma="0.61" />
    <vehicle id="0" depart="0.00" departLane="free" departPos="random_free" departSpeed="max">
        <route edges="1 7 26 4" />
    </vehicle>
    <vType id="passenger" length="4.61" minGap="3.53" maxSpeed="50.00" probability="4.00" speedFactor="normc(1.09,0.16,0.20,2.00)" vClass="passenger" impatience="0.17" guiShape="passenger" width="1.83" minGapLat="1.50" lcStrategic="1.10" lcCooperative="2.00" lcSpeedGain="7.28" lcKeepRight="0.82" lcSublane="2.00" lcImpatience="0.00" lcMaxSpeedLatStanding="0.00" lcSigma="0.14" accel="2.13" decel="5.05" sigma="0.64" />
    <vehicle id="1" depart="0.17" departLane="free" departPos="random_free" departSpeed="max">
        <route edges="1 7 26 4" />
    </vehicle>
    <vehicle id="2" depart="0.34" departLane="free" departPos="random_free" departSpeed="max">
        <route edges="1 11 31 14 33 17" />
    </vehicle>
    <vehicle id="3" depart="0.52" departLane="free" departPos="random_free" departSpeed="max">
        <route edges="16 34 13 32 10 7 26 4" />
    </vehicle>
    <vehicle id="5" depart="0.86" departLane="free" departPos="random_free" departSpeed="max">
        <route edges="1 7 26 4" />
    </vehicle>
    <vehicle id="7" depart="1.20" departLane="free" departPos="random_free" departSpeed="max">
        <route edges="1 7 26 4" />
    </vehicle>
    <vehicle id="8" depart="1.37" departLane="free" departPos="random_free" departSpeed="max">
        <route edges="16 34 13 32 10 7 26 4" />
    </vehicle>
    <vehicle id="9" depart="1.55" departLane="free" departPos="random_free" departSpeed="max">
        <route edges="5 25 8 11 31 14 33 17" />
    </vehicle>
    <vehicle id="10" depart="1.72" departLane="free" departPos="random_free" departSpeed="max">
        <route edges="5 25 8 11 31 14 33 17" />
    </vehicle>
    <vehicle id="12" depart="2.06" departLane="free" departPos="random_free" departSpeed="max">
        <route edges="1 11 31 14 33 17" />
    </vehicle>
    <vehicle id="13" depart="2.23" departLane="free" departPos="random_free" departSpeed="max">
        <route edges="5 25 8 2" />
    </vehicle>
    <vehicle id="14" depart="2.41" departLane="free" departPos="random_free" departSpeed="max">
        <route edges="16 34 13 32 10 7 26 4" />
    </vehicle>
    <vehicle id="15" depart="2.58" departLane="free" departPos="random_free" departSpeed="max">
        <route edges="16 34 13 32 10 2" />
    </vehicle>
    <vehicle id="16" depart="2.75" departLane="free" departPos="random_free" departSpeed="max">
        <route edges="1 7 26 4" />
    </vehicle>
    <vehicle id="17" depart="2.92" departLane="free" departPos="random_free" departSpeed="max">
        <route edges="5 25 8 2" />
    </vehicle>
    <vehicle id="19" depart="3.27" departLane="free" departPos="random_free" departSpeed="max">
        <route edges="5 25 8 11 31 14 33 17" />
    </vehicle>
    <vehicle id="20" depart="3.44" departLane="free" departPos="random_free" departSpeed="max">
        <route edges="16 34 13 32 10 7 26 4" />
    </vehicle>
    <vehicle id="21" depart="3.61" departLane="free" departPos="random_free" departSpeed="max">
        <route edges="5 25 8 11 31 14 33 17" />
    </vehicle>
    <vehicle id="23" depart="3.95" departLane="free" departPos="random_free" departSpeed="max">
        <route edges="5 25 8 11 31 14 33 17" />
    </vehicle>
    <vType id="bus" length="12.40" minGap="2.50" maxSpeed="23.61" probability="0.30" speedFactor="normc(1.02,0.16,0.20,2.00)" vClass="bus" impatience="0.20" guiShape="bus" width="2.70" minGapLat="1.50" lcStrategic="1.32" lcCooperative="2.47" lcSpeedGain="14.54" lcKeepRight="0.86" lcSublane="2.00" lcImpatience="0.00" lcMaxSpeedLatStanding="0.00" lcSigma="0.14" accel="1.08" decel="3.18" sigma="0.65" />
    <vehicle id="24" depart="4.12" departLane="free" departPos="random_free" departSpeed="max">
        <route edges="1 11 31 14 33 17" />
    </vehicle>
    <vehicle id="25" depart="4.30" departLane="free" departPos="random_free" departSpeed="max">
        <route edges="1 11 31 14 33 17" />
    </vehicle>
    <vehicle id="29" depart="4.98" departLane="free" departPos="random_free" departSpeed="max">
        <route edges="5 25 8 2" />
    </vehicle>
    <vehicle id="30" depart="5.16" departLane="free" departPos="random_free" departSpeed="max">
        <route edges="5 25 8 11 31 14 33 17" />
    </vehicle>
    <vehicle id="32" depart="5.50" departLane="free" departPos="random_free" departSpeed="max">
        <route edges="5 25 8 11 31 14 33 17" />
    </vehicle>
    <vehicle id="33" depart="5.67" departLane="free" departPos="random_free" departSpeed="max">
        <route edges="5 25 8 11 31 14 33 17" />
    </vehicle>
    <vehicle id="34" depart="5.84" departLane="free" departPos="random_free" departSpeed="max">
        <route edges="5 25 8 11 31 14 33 17" />
    </vehicle>
    <vehicle id="35" depart="6.01" departLane="free" departPos="random_free" departSpeed="max">
        <route edges="1 11 31 14 33 17" />
    </vehicle>
    <vehicle id="36" depart="6.19" departLane="free" departPos="random_free" departSpeed="max">
        <route edges="16 34 13 32 10 7 26 4" />
    </vehicle>
    <vehicle id="37" depart="6.36" departLane="free" departPos="random_free" departSpeed="max">
        <route edges="1 11 31 14 33 17" />
    </vehicle>
    <vehicle id="38" depart="6.53" departLane="free" departPos="random_free" departSpeed="max">
        <route edges="1 7 26 4" />
    </vehicle>
    <vehicle id="40" depart="6.87" departLane="free" departPos="random_free" departSpeed="max">
        <route edges="1 11 31 14 33 17" />
    </vehicle>
    <vType id="bicycle" length="2.00" minGap="1.00" maxSpeed="6.94" probability="0.20" speedFactor="normc(1.06,0.15,0.20,2.00)" vClass="bicycle" impatience="0.14" guiShape="bicycle" width="0.68" minGapLat="1.50" lcStrategic="3.96" lcCooperative="1.28" lcSpeedGain="12.71" lcKeepRight="0.82" lcSublane="2.00" lcImpatience="0.00" lcMaxSpeedLatStanding="0.00" lcSigma="0.14" accel="1.05" decel="3.00" sigma="0.54" />
    <vehicle id="41" depart="7.05" departLane="free" departPos="random_free" departSpeed="max">
        <route edges="16 34 13 32 10 7 26 4" />
    </vehicle>
    <vehicle id="42" depart="7.22" departLane="free" departPos="random_free" departSpeed="max">
        <route edges="5 25 8 2" />
    </vehicle>
    <vehicle id="45" depart="7.73" departLane="free" departPos="random_free" departSpeed="max">
        <route edges="16 34 13 32 10 2" />
    </vehicle>
    <vehicle id="48" depart="8.25" departLane="free" departPos="random_free" departSpeed="max">
        <route edges="5 25 8 11 31 14 33 17" />
    </vehicle>
    <vehicle id="49" depart="8.42" departLane="free" departPos="random_free" departSpeed="max">
        <route edges="5 25 8 11 31 14 33 17" />
    </vehicle>
    <vehicle id="50" depart="8.59" departLane="free" departPos="random_free" departSpeed="max">
        <route edges="16 34 13 32 10 7 26 4" />
    </vehicle>
    <vehicle id="52" depart="8.94" departLane="free" departPos="random_free" departSpeed="max">
        <route edges="5 25 8 2" />
    </vehicle>
    <vehicle id="53" depart="9.11" departLane="free" departPos="random_free" departSpeed="max">
        <route edges="5 25 8 2" />
    </vehicle>
    <vehicle id="55" depart="9.45" departLane="free" departPos="random_free" departSpeed="max">
        <route edges="5 25 8 2" />
    </vehicle>
    <vehicle id="56" depart="9.62" departLane="free" departPos="random_free" departSpeed="max">
        <route edges="1 11 31 14 33 17" />
    </vehicle>
    <vehicle id="61" depart="10.48" departLane="free" departPos="random_free" departSpeed="max">
        <route edges="16 34 13 32 10 2" />
    </vehicle>
    <vehicle id="egoVehicle62" depart="10.65" departLane="free" departPos="random_free" departSpeed="max">
        <route edges="16 34 13 32 10 7 26 4" />
    </vehicle>
    <vehicle id="64" depart="11.00" departLane="free" departPos="random_free" departSpeed="max">
        <route edges="16 34 13 32 10 7 26 4" />
    </vehicle>
    <vehicle id="65" depart="11.17" departLane="free" departPos="random_free" departSpeed="max">
        <route edges="1 7 26 4" />
    </vehicle>
    <vehicle id="67" depart="11.51" departLane="free" departPos="random_free" departSpeed="max">
        <route edges="1 11 31 14 33 17" />
    </vehicle>
    <vehicle id="68" depart="11.69" departLane="free" departPos="random_free" departSpeed="max">
        <route edges="1 7 26 4" />
    </vehicle>
    <vehicle id="70" depart="12.03" departLane="free" departPos="random_free" departSpeed="max">
        <route edges="1 7 26 4" />
    </vehicle>
    <vehicle id="71" depart="12.20" departLane="free" departPos="random_free" departSpeed="max">
        <route edges="16 34 13 32 10 2" />
    </vehicle>
    <vehicle id="72" depart="12.37" departLane="free" departPos="random_free" departSpeed="max">
        <route edges="16 34 13 32 10 7 26 4" />
    </vehicle>
    <vehicle id="73" depart="12.54" departLane="free" departPos="random_free" departSpeed="max">
        <route edges="16 34 13 32 10 7 26 4" />
    </vehicle>
    <vehicle id="74" depart="12.72" departLane="free" departPos="random_free" departSpeed="max">
        <route edges="5 25 8 2" />
    </vehicle>
    <vehicle id="75" depart="12.89" departLane="free" departPos="random_free" departSpeed="max">
        <route edges="16 34 13 32 10 2" />
    </vehicle>
    <vehicle id="78" depart="13.40" departLane="free" departPos="random_free" departSpeed="max">
        <route edges="16 34 13 32 10 2" />
    </vehicle>
    <vehicle id="79" depart="13.58" departLane="free" departPos="random_free" departSpeed="max">
        <route edges="5 25 8 2" />
    </vehicle>
    <vehicle id="80" depart="13.75" departLane="free" departPos="random_free" departSpeed="max">
        <route edges="16 34 13 32 10 7 26 4" />
    </vehicle>
    <vehicle id="83" depart="14.26" departLane="free" departPos="random_free" departSpeed="max">
        <route edges="5 25 8 11 31 14 33 17" />
    </vehicle>
    <vehicle id="84" depart="14.44" departLane="free" departPos="random_free" departSpeed="max">
        <route edges="1 7 26 4" />
    </vehicle>
    <vehicle id="85" depart="14.61" departLane="free" departPos="random_free" departSpeed="max">
        <route edges="1 7 26 4" />
    </vehicle>
    <vehicle id="86" depart="14.78" departLane="free" departPos="random_free" departSpeed="max">
        <route edges="1 11 31 14 33 17" />
    </vehicle>
    <vehicle id="87" depart="14.95" departLane="free" departPos="random_free" departSpeed="max">
        <route edges="5 25 8 11 31 14 33 17" />
    </vehicle>
</routes>