<net xmlns:xsi="http://www.w3.org/2001/XMLSchema-instance" version="1.3" junctionCornerDetail="5" junctionLinkDetail="20" limitTurnSpeed="5.50" xsi:noNamespaceSchemaLocation="http://sumo.dlr.de/xsd/net_file.xsd">

    <location netOffset="0.00,0.00" convBoundary="-255.86,-166.09,237.48,201.57" origBoundary="-259.22,-170.46,240.39,205.60" projParameter="!"/>

    <type id="highway.bridleway" priority="1" speed="2.78" allow="pedestrian" oneway="1"/>
    <type id="highway.bus_guideway" priority="1" speed="27.78" allow="bus" oneway="1"/>
    <type id="highway.cycleway" priority="1" speed="8.33" allow="bicycle"/>
    <type id="highway.footway" priority="1" speed="2.78" allow="pedestrian" oneway="1"/>
    <type id="highway.ford" priority="1" speed="2.78" allow="army"/>
    <type id="highway.living_street" priority="2" speed="2.78" disallow="tram rail_urban rail rail_electric ship"/>
    <type id="highway.motorway" priority="14" speed="39.44" disallow="pedestrian moped bicycle tram rail_urban rail rail_electric ship" oneway="1"/>
    <type id="highway.motorway_link" priority="9" speed="22.22" disallow="pedestrian moped bicycle tram rail_urban rail rail_electric ship" oneway="1"/>
    <type id="highway.path" priority="1" speed="2.78" allow="pedestrian bicycle"/>
    <type id="highway.pedestrian" priority="1" speed="2.78" allow="pedestrian" oneway="1"/>
    <type id="highway.primary" priority="12" speed="27.78" disallow="pedestrian tram rail_urban rail rail_electric ship"/>
    <type id="highway.primary_link" priority="7" speed="22.22" disallow="pedestrian tram rail_urban rail rail_electric ship"/>
    <type id="highway.raceway" priority="15" speed="83.33" allow="vip"/>
    <type id="highway.residential" priority="3" speed="13.89" disallow="pedestrian tram rail_urban rail rail_electric ship"/>
    <type id="highway.residential_speed_69.44" priority="3" speed="69.44" disallow="pedestrian tram rail_urban rail rail_electric ship"/>
    <type id="highway.secondary" priority="11" speed="27.78" disallow="pedestrian tram rail_urban rail rail_electric ship"/>
    <type id="highway.secondary_link" priority="6" speed="22.22" disallow="pedestrian tram rail_urban rail rail_electric ship"/>
    <type id="highway.service" priority="1" speed="5.56" allow="pedestrian delivery bicycle"/>
    <type id="highway.stairs" priority="1" speed="1.39" allow="pedestrian" oneway="1"/>
    <type id="highway.step" priority="1" speed="1.39" allow="pedestrian" oneway="1"/>
    <type id="highway.steps" priority="1" speed="1.39" allow="pedestrian" oneway="1"/>
    <type id="highway.tertiary" priority="10" speed="22.22" disallow="pedestrian tram rail_urban rail rail_electric ship"/>
    <type id="highway.tertiary_link" priority="5" speed="22.22" disallow="pedestrian tram rail_urban rail rail_electric ship"/>
    <type id="highway.track" priority="1" speed="5.56" allow="pedestrian motorcycle moped bicycle"/>
    <type id="highway.trunk" priority="13" speed="27.78" disallow="pedestrian bicycle tram rail_urban rail rail_electric ship"/>
    <type id="highway.trunk_link" priority="8" speed="22.22" disallow="pedestrian bicycle tram rail_urban rail rail_electric ship"/>
    <type id="highway.unclassified" priority="4" speed="13.89" disallow="tram rail_urban rail rail_electric ship"/>
    <type id="highway.unsurfaced" priority="1" speed="8.33" disallow="tram rail_urban rail rail_electric ship"/>
    <type id="railway.highspeed" priority="21" speed="69.44" allow="rail" oneway="1"/>
    <type id="railway.light_rail" priority="19" speed="27.78" allow="rail_urban" oneway="1"/>
    <type id="railway.preserved" priority="16" speed="27.78" allow="rail" oneway="1"/>
    <type id="railway.rail" priority="20" speed="44.44" allow="rail" oneway="1"/>
    <type id="railway.subway" priority="18" speed="27.78" allow="rail_urban" oneway="1"/>
    <type id="railway.tram" priority="17" speed="13.89" allow="tram" oneway="1"/>

    <edge id=":1_0" function="internal">
        <lane id=":1_0_0" index="0" disallow="pedestrian tram rail_urban rail rail_electric ship" speed="69.44" length="3.01" width="3.50" shape="-173.33,126.10 -170.96,124.24"/>
        <lane id=":1_0_1" index="1" disallow="pedestrian tram rail_urban rail rail_electric ship" speed="69.44" length="3.01" width="3.50" shape="-171.17,128.85 -168.80,126.99"/>
        <lane id=":1_0_2" index="2" disallow="pedestrian tram rail_urban rail rail_electric ship" speed="69.44" length="3.01" width="3.50" shape="-169.00,131.60 -166.63,129.74"/>
        <lane id=":1_0_3" index="3" disallow="pedestrian tram rail_urban rail rail_electric ship" speed="69.44" length="3.00" width="3.50" shape="-166.83,134.35 -164.47,132.49"/>
    </edge>
    <edge id=":2_0" function="internal">
        <lane id=":2_0_0" index="0" disallow="pedestrian tram rail_urban rail rail_electric ship" speed="69.44" length="3.01" width="3.50" shape="-110.77,76.90 -108.40,75.04"/>
        <lane id=":2_0_1" index="1" disallow="pedestrian tram rail_urban rail rail_electric ship" speed="69.44" length="3.01" width="3.50" shape="-108.61,79.65 -106.24,77.79"/>
        <lane id=":2_0_2" index="2" disallow="pedestrian tram rail_urban rail rail_electric ship" speed="69.44" length="3.02" width="3.50" shape="-106.45,82.41 -104.07,80.55"/>
        <lane id=":2_0_3" index="3" disallow="pedestrian tram rail_urban rail rail_electric ship" speed="69.44" length="3.02" width="3.50" shape="-104.29,85.16 -101.91,83.30"/>
    </edge>
    <edge id=":4_0" function="internal">
        <lane id=":4_0_0" index="0" disallow="pedestrian tram rail_urban rail rail_electric ship" speed="69.44" length="3.08" width="3.50" shape="-187.81,137.90 -185.44,135.94"/>
        <lane id=":4_0_1" index="1" disallow="pedestrian tram rail_urban rail rail_electric ship" speed="69.44" length="3.06" width="3.50" shape="-185.57,140.59 -183.21,138.64"/>
        <lane id=":4_0_2" index="2" disallow="pedestrian tram rail_urban rail rail_electric ship" speed="69.44" length="3.05" width="3.50" shape="-183.32,143.27 -180.97,141.33"/>
        <lane id=":4_0_3" index="3" disallow="pedestrian tram rail_urban rail rail_electric ship" speed="69.44" length="3.03" width="3.50" shape="-181.08,145.96 -178.74,144.03"/>
    </edge>
    <edge id=":5_0" function="internal">
        <lane id=":5_0_0" index="0" disallow="pedestrian tram rail_urban rail rail_electric ship" speed="69.44" length="3.02" width="3.50" shape="-95.66,65.09 -93.27,63.24"/>
        <lane id=":5_0_1" index="1" disallow="pedestrian tram rail_urban rail rail_electric ship" speed="69.44" length="3.03" width="3.50" shape="-93.51,67.86 -91.12,66.00"/>
        <lane id=":5_0_2" index="2" disallow="pedestrian tram rail_urban rail rail_electric ship" speed="69.44" length="3.01" width="3.50" shape="-91.36,70.62 -88.98,68.77"/>
        <lane id=":5_0_3" index="3" disallow="pedestrian tram rail_urban rail rail_electric ship" speed="69.44" length="3.01" width="3.50" shape="-89.21,73.38 -86.83,71.53"/>
    </edge>

    <edge id="14" from="3" to="4" priority="3" type="highway.residential_speed_69.44" spreadType="center" length="93.04">
        <lane id="14_0" index="0" disallow="pedestrian tram rail_urban rail rail_electric ship" speed="69.44" length="93.04" width="3.50" customShape="1" shape="-259.22,197.54 -222.94,167.24 -187.81,137.90"/>
        <lane id="14_1" index="1" disallow="pedestrian tram rail_urban rail rail_electric ship" speed="69.44" length="93.04" width="3.50" customShape="1" shape="-256.98,200.23 -220.70,169.93 -185.57,140.59"/>
        <lane id="14_2" index="2" disallow="pedestrian tram rail_urban rail rail_electric ship" speed="69.44" length="93.05" width="3.50" customShape="1" shape="-254.74,202.92 -218.46,172.62 -183.32,143.27"/>
        <lane id="14_3" index="3" disallow="pedestrian tram rail_urban rail rail_electric ship" speed="69.44" length="93.04" width="3.50" customShape="1" shape="-252.49,205.60 -216.21,175.30 -181.08,145.96"/>
    </edge>
    <edge id="24" from="5" to="6" priority="3" type="highway.residential_speed_69.44" spreadType="center" length="401.94">
        <lane id="24_0" index="0" disallow="pedestrian tram rail_urban rail rail_electric ship" speed="69.44" length="402.70" width="3.50" customShape="1" shape="-93.27,63.24 -55.66,34.08 -45.21,26.15 153.21,-116.27 234.57,-170.46"/>
        <lane id="24_1" index="1" disallow="pedestrian tram rail_urban rail rail_electric ship" speed="69.44" length="402.45" width="3.50" customShape="1" shape="-91.12,66.00 -53.53,36.86 -43.11,28.95 155.18,-113.38 236.51,-167.55"/>
        <lane id="24_2" index="2" disallow="pedestrian tram rail_urban rail rail_electric ship" speed="69.44" length="402.20" width="3.50" customShape="1" shape="-88.98,68.77 -51.40,39.64 -41.00,31.74 157.14,-110.48 238.45,-164.63"/>
        <lane id="24_3" index="3" disallow="pedestrian tram rail_urban rail rail_electric ship" speed="69.44" length="401.94" width="3.50" customShape="1" shape="-86.83,71.53 -49.28,42.42 -38.93,34.56 159.10,-107.58 240.39,-161.72"/>
    </edge>
    <edge id="37" from="2" to="5" priority="3" type="highway.residential_speed_69.44" spreadType="center" length="16.12">
        <lane id="37_0" index="0" disallow="pedestrian tram rail_urban rail rail_electric ship" speed="69.44" length="16.17" width="3.50" customShape="1" shape="-108.40,75.04 -102.03,70.07 -95.66,65.09"/>
        <lane id="37_1" index="1" disallow="pedestrian tram rail_urban rail rail_electric ship" speed="69.44" length="16.14" width="3.50" customShape="1" shape="-106.24,77.79 -99.87,72.83 -93.51,67.86"/>
        <lane id="37_2" index="2" disallow="pedestrian tram rail_urban rail rail_electric ship" speed="69.44" length="16.13" width="3.50" customShape="1" shape="-104.07,80.55 -97.72,75.58 -91.36,70.62"/>
        <lane id="37_3" index="3" disallow="pedestrian tram rail_urban rail rail_electric ship" speed="69.44" length="16.12" width="3.50" customShape="1" shape="-101.91,83.30 -95.56,78.34 -89.21,73.38"/>
    </edge>
    <edge id="4" from="1" to="2" priority="3" type="highway.residential_speed_69.44" spreadType="center" length="76.56">
        <lane id="4_0" index="0" disallow="pedestrian tram rail_urban rail rail_electric ship" speed="69.44" length="76.58" width="3.50" customShape="1" shape="-170.96,124.24 -140.87,100.57 -110.77,76.90"/>
        <lane id="4_1" index="1" disallow="pedestrian tram rail_urban rail rail_electric ship" speed="69.44" length="76.58" width="3.50" customShape="1" shape="-168.80,126.99 -138.70,103.32 -108.61,79.65"/>
        <lane id="4_2" index="2" disallow="pedestrian tram rail_urban rail rail_electric ship" speed="69.44" length="76.56" width="3.50" customShape="1" shape="-166.63,129.74 -136.54,106.07 -106.45,82.41"/>
        <lane id="4_3" index="3" disallow="pedestrian tram rail_urban rail rail_electric ship" speed="69.44" length="76.56" width="3.50" customShape="1" shape="-164.47,132.49 -134.38,108.82 -104.29,85.16"/>
    </edge>
    <edge id="41" from="4" to="1" priority="3" type="highway.residential_speed_69.44" spreadType="center" length="15.35">
        <lane id="41_0" index="0" disallow="pedestrian tram rail_urban rail rail_electric ship" speed="69.44" length="15.60" width="3.50" customShape="1" shape="-185.44,135.94 -174.58,127.09 -173.33,126.10"/>
        <lane id="41_1" index="1" disallow="pedestrian tram rail_urban rail rail_electric ship" speed="69.44" length="15.52" width="3.50" customShape="1" shape="-183.21,138.64 -172.40,129.83 -171.17,128.85"/>
        <lane id="41_2" index="2" disallow="pedestrian tram rail_urban rail rail_electric ship" speed="69.44" length="15.43" width="3.50" customShape="1" shape="-180.97,141.33 -170.22,132.57 -169.00,131.60"/>
        <lane id="41_3" index="3" disallow="pedestrian tram rail_urban rail rail_electric ship" speed="69.44" length="15.35" width="3.50" customShape="1" shape="-178.74,144.03 -168.05,135.31 -166.83,134.35"/>
    </edge>

    <junction id="1" type="priority" x="-168.90" y="129.29" incLanes="41_0 41_1 41_2 41_3" intLanes=":1_0_0 :1_0_1 :1_0_2 :1_0_3" shape="-163.39,133.86 -172.04,122.86 -174.41,124.73 -165.75,135.73">
        <request index="0" response="0000" foes="0000" cont="0"/>
        <request index="1" response="0000" foes="0000" cont="0"/>
        <request index="2" response="0000" foes="0000" cont="0"/>
        <request index="3" response="0000" foes="0000" cont="0"/>
    </junction>
    <junction id="2" type="priority" x="-106.35" y="80.10" incLanes="4_0 4_1 4_2 4_3" intLanes=":2_0_0 :2_0_1 :2_0_2 :2_0_3" shape="-100.83,84.68 -109.48,73.66 -111.86,75.53 -103.21,86.53">
        <request index="0" response="0000" foes="0000" cont="0"/>
        <request index="1" response="0000" foes="0000" cont="0"/>
        <request index="2" response="0000" foes="0000" cont="0"/>
        <request index="3" response="0000" foes="0000" cont="0"/>
    </junction>
    <junction id="3" type="dead_end" x="-255.86" y="201.57" incLanes="" intLanes="" shape="-251.37,206.95 -260.34,196.20"/>
    <junction id="4" type="priority" x="-183.29" y="140.97" incLanes="14_0 14_1 14_2 14_3" intLanes=":4_0_0 :4_0_1 :4_0_2 :4_0_3" shape="-177.62,145.38 -186.56,134.60 -188.93,136.55 -179.96,147.31">
        <request index="0" response="0000" foes="0000" cont="0"/>
        <request index="1" response="0000" foes="0000" cont="0"/>
        <request index="2" response="0000" foes="0000" cont="0"/>
        <request index="3" response="0000" foes="0000" cont="0"/>
    </junction>
    <junction id="5" type="priority" x="-91.24" y="68.31" incLanes="37_0 37_1 37_2 37_3" intLanes=":5_0_0 :5_0_1 :5_0_2 :5_0_3" shape="-85.76,72.92 -94.34,61.86 -96.73,63.71 -88.14,74.76">
        <request index="0" response="0000" foes="0000" cont="0"/>
        <request index="1" response="0000" foes="0000" cont="0"/>
        <request index="2" response="0000" foes="0000" cont="0"/>
        <request index="3" response="0000" foes="0000" cont="0"/>
    </junction>
    <junction id="6" type="dead_end" x="237.48" y="-166.09" incLanes="24_0 24_1 24_2 24_3" intLanes="" shape="233.60,-171.92 241.36,-160.26"/>

    <connection from="14" to="41" fromLane="0" toLane="0" contPos="-4.00" via=":4_0_0" dir="s" state="M"/>
    <connection from="14" to="41" fromLane="1" toLane="1" contPos="-4.00" via=":4_0_1" dir="s" state="M"/>
    <connection from="14" to="41" fromLane="2" toLane="2" contPos="-4.00" via=":4_0_2" dir="s" state="M"/>
    <connection from="14" to="41" fromLane="3" toLane="3" contPos="-4.00" via=":4_0_3" dir="s" state="M"/>
    <connection from="37" to="24" fromLane="0" toLane="0" contPos="-4.00" via=":5_0_0" dir="s" state="M"/>
    <connection from="37" to="24" fromLane="1" toLane="1" contPos="-4.00" via=":5_0_1" dir="s" state="M"/>
    <connection from="37" to="24" fromLane="2" toLane="2" contPos="-4.00" via=":5_0_2" dir="s" state="M"/>
    <connection from="37" to="24" fromLane="3" toLane="3" contPos="-4.00" via=":5_0_3" dir="s" state="M"/>
    <connection from="4" to="37" fromLane="0" toLane="0" contPos="-4.00" via=":2_0_0" dir="s" state="M"/>
    <connection from="4" to="37" fromLane="1" toLane="1" contPos="-4.00" via=":2_0_1" dir="s" state="M"/>
    <connection from="4" to="37" fromLane="2" toLane="2" contPos="-4.00" via=":2_0_2" dir="s" state="M"/>
    <connection from="4" to="37" fromLane="3" toLane="3" contPos="-4.00" via=":2_0_3" dir="s" state="M"/>
    <connection from="41" to="4" fromLane="0" toLane="0" contPos="-4.00" via=":1_0_0" dir="s" state="M"/>
    <connection from="41" to="4" fromLane="1" toLane="1" contPos="-4.00" via=":1_0_1" dir="s" state="M"/>
    <connection from="41" to="4" fromLane="2" toLane="2" contPos="-4.00" via=":1_0_2" dir="s" state="M"/>
    <connection from="41" to="4" fromLane="3" toLane="3" contPos="-4.00" via=":1_0_3" dir="s" state="M"/>

    <connection from=":1_0" to="4" fromLane="0" toLane="0" dir="s" state="M"/>
    <connection from=":1_0" to="4" fromLane="1" toLane="1" dir="s" state="M"/>
    <connection from=":1_0" to="4" fromLane="2" toLane="2" dir="s" state="M"/>
    <connection from=":1_0" to="4" fromLane="3" toLane="3" dir="s" state="M"/>
    <connection from=":2_0" to="37" fromLane="0" toLane="0" dir="s" state="M"/>
    <connection from=":2_0" to="37" fromLane="1" toLane="1" dir="s" state="M"/>
    <connection from=":2_0" to="37" fromLane="2" toLane="2" dir="s" state="M"/>
    <connection from=":2_0" to="37" fromLane="3" toLane="3" dir="s" state="M"/>
    <connection from=":4_0" to="41" fromLane="0" toLane="0" dir="s" state="M"/>
    <connection from=":4_0" to="41" fromLane="1" toLane="1" dir="s" state="M"/>
    <connection from=":4_0" to="41" fromLane="2" toLane="2" dir="s" state="M"/>
    <connection from=":4_0" to="41" fromLane="3" toLane="3" dir="s" state="M"/>
    <connection from=":5_0" to="24" fromLane="0" toLane="0" dir="s" state="M"/>
    <connection from=":5_0" to="24" fromLane="1" toLane="1" dir="s" state="M"/>
    <connection from=":5_0" to="24" fromLane="2" toLane="2" dir="s" state="M"/>
    <connection from=":5_0" to="24" fromLane="3" toLane="3" dir="s" state="M"/>

</net>