<?xml version='1.0' encoding='utf-8'?>
<routes xmlns:xsi="http://www.w3.org/2001/XMLSchema-instance" xsi:noNamespaceSchemaLocation="http://sumo.dlr.de/xsd/routes_file.xsd">
    <vType accel="1.08" decel="3.01" guiShape="truck" id="truck" impatience="0.08" lcCooperative="1.75" lcImpatience="0.00" lcKeepRight="0.89" lcMaxSpeedLatStanding="0.00" lcSigma="0.15" lcSpeedGain="5.45" lcStrategic="1.73" lcSublane="2.00" length="7.50" maxSpeed="36.11" minGap="4.50" minGapLat="1.50" probability="0.80" sigma="0.61" speedFactor="normc(1.08,0.17,0.20,2.00)" vClass="truck" width="2.60" />
    <vehicle depart="0.00" departLane="random" departPos="random_free" departSpeed="speedLimit" id="0">
        <route edges="361 368 346 347" />
    </vehicle>
    <vType accel="2.13" decel="6.26" guiShape="passenger" id="passenger" impatience="0.17" lcCooperative="1.92" lcImpatience="0.00" lcKeepRight="0.83" lcMaxSpeedLatStanding="0.00" lcSigma="0.14" lcSpeedGain="13.94" lcStrategic="1.79" lcSublane="2.00" length="4.72" maxSpeed="50.00" minGap="4.53" minGapLat="1.50" probability="4.00" sigma="0.66" speedFactor="normc(0.95,0.16,0.20,2.00)" vClass="passenger" width="2.01" />
    <vehicle depart="0.02" departLane="random" departPos="random_free" departSpeed="speedLimit" id="1">
        <route edges="361 368 346 347" />
    </vehicle>
    <vehicle depart="0.04" departLane="random" departPos="random_free" departSpeed="speedLimit" id="2">
        <route edges="361 368 346 347" />
    </vehicle>
    <vehicle depart="0.06" departLane="random" departPos="random_free" departSpeed="speedLimit" id="3">
        <route edges="361 368 346 347" />
    </vehicle>
    <vehicle depart="0.07" departLane="random" departPos="random_free" departSpeed="speedLimit" id="4">
        <route edges="361 368 346 347" />
    </vehicle>
    <vehicle depart="0.09" departLane="random" departPos="random_free" departSpeed="speedLimit" id="5">
        <route edges="361 368 370 373" />
    </vehicle>
    <vehicle depart="0.11" departLane="random" departPos="random_free" departSpeed="speedLimit" id="6">
        <route edges="361 368 346 347" />
    </vehicle>
    <vehicle depart="0.13" departLane="random" departPos="random_free" departSpeed="speedLimit" id="7">
        <route edges="361 368 370 373" />
    </vehicle>
    <vehicle depart="0.15" departLane="random" departPos="random_free" departSpeed="speedLimit" id="8">
        <route edges="361 368 346 347" />
    </vehicle>
    <vehicle depart="0.17" departLane="random" departPos="random_free" departSpeed="speedLimit" id="9">
        <route edges="361 368 370 373" />
    </vehicle>
    <vehicle depart="0.19" departLane="random" departPos="random_free" departSpeed="speedLimit" id="10">
        <route edges="361 368 370 373" />
    </vehicle>
    <vehicle depart="0.21" departLane="random" departPos="random_free" departSpeed="speedLimit" id="11">
        <route edges="361 368 370 373" />
    </vehicle>
    <vehicle depart="0.22" departLane="random" departPos="random_free" departSpeed="speedLimit" id="12">
        <route edges="361 368 346 347" />
    </vehicle>
    <vehicle depart="0.24" departLane="random" departPos="random_free" departSpeed="speedLimit" id="13">
        <route edges="361 368 346 347" />
    </vehicle>
    <vehicle depart="0.26" departLane="random" departPos="random_free" departSpeed="speedLimit" id="14">
        <route edges="361 368 370 373" />
    </vehicle>
    <vehicle depart="0.28" departLane="random" departPos="random_free" departSpeed="speedLimit" id="15">
        <route edges="361 368 370 373" />
    </vehicle>
    <vehicle depart="0.30" departLane="random" departPos="random_free" departSpeed="speedLimit" id="16">
        <route edges="361 368 346 347" />
    </vehicle>
    <vehicle depart="0.32" departLane="random" departPos="random_free" departSpeed="speedLimit" id="17">
        <route edges="361 368 370 373" />
    </vehicle>
    <vehicle depart="0.34" departLane="random" departPos="random_free" departSpeed="speedLimit" id="18">
        <route edges="361 368 346 347" />
    </vehicle>
    <vehicle depart="0.35" departLane="random" departPos="random_free" departSpeed="speedLimit" id="19">
        <route edges="361 368 346 347" />
    </vehicle>
    <vehicle depart="0.37" departLane="random" departPos="random_free" departSpeed="speedLimit" id="20">
        <route edges="361 368 346 347" />
    </vehicle>
    <vehicle depart="0.39" departLane="random" departPos="random_free" departSpeed="speedLimit" id="21">
        <route edges="361 368 370 373" />
    </vehicle>
    <vehicle depart="0.41" departLane="random" departPos="random_free" departSpeed="speedLimit" id="22">
        <route edges="361 368 370 373" />
    </vehicle>
    <vehicle depart="0.43" departLane="random" departPos="random_free" departSpeed="speedLimit" id="23">
        <route edges="361 368 346 347" />
    </vehicle>
    <vType accel="1.01" decel="3.17" guiShape="bus" id="bus" impatience="0.10" lcCooperative="2.22" lcImpatience="0.00" lcKeepRight="0.87" lcMaxSpeedLatStanding="0.00" lcSigma="0.10" lcSpeedGain="8.89" lcStrategic="1.42" lcSublane="2.00" length="12.40" maxSpeed="23.61" minGap="2.50" minGapLat="1.50" probability="0.30" sigma="0.58" speedFactor="normc(0.95,0.16,0.20,2.00)" vClass="bus" width="2.70" />
    <vehicle depart="0.45" departLane="random" departPos="random_free" departSpeed="speedLimit" id="24">
        <route edges="361 368 370 373" />
    </vehicle>
    <vehicle depart="0.47" departLane="random" departPos="random_free" departSpeed="speedLimit" id="25">
        <route edges="361 368 370 373" />
    </vehicle>
    <vehicle depart="0.49" departLane="random" departPos="random_free" departSpeed="speedLimit" id="26">
        <route edges="361 368 346 347" />
    </vehicle>
    <vehicle depart="0.50" departLane="random" departPos="random_free" departSpeed="speedLimit" id="27">
        <route edges="361 368 346 347" />
    </vehicle>
    <vehicle depart="0.52" departLane="random" departPos="random_free" departSpeed="speedLimit" id="28">
        <route edges="361 368 370 373" />
    </vehicle>
    <vehicle depart="0.54" departLane="random" departPos="random_free" departSpeed="speedLimit" id="29">
        <route edges="361 368 346 347" />
    </vehicle>
    <vehicle depart="0.56" departLane="random" departPos="random_free" departSpeed="speedLimit" id="30">
        <route edges="361 368 370 373" />
    </vehicle>
    <vehicle depart="0.58" departLane="random" departPos="random_free" departSpeed="speedLimit" id="31">
        <route edges="361 368 370 373" />
    </vehicle>
    <vehicle depart="0.60" departLane="random" departPos="random_free" departSpeed="speedLimit" id="32">
        <route edges="361 368 346 347" />
    </vehicle>
    <vehicle depart="0.62" departLane="random" departPos="random_free" departSpeed="speedLimit" id="33">
        <route edges="361 368 370 373" />
    </vehicle>
    <vehicle depart="0.63" departLane="random" departPos="random_free" departSpeed="speedLimit" id="34">
        <route edges="361 368 370 373" />
    </vehicle>
    <vehicle depart="0.65" departLane="random" departPos="random_free" departSpeed="speedLimit" id="35">
        <route edges="361 368 346 347" />
    </vehicle>
    <vehicle depart="0.67" departLane="random" departPos="random_free" departSpeed="speedLimit" id="36">
        <route edges="361 368 370 373" />
    </vehicle>
    <vehicle depart="0.69" departLane="random" departPos="random_free" departSpeed="speedLimit" id="37">
        <route edges="361 368 370 373" />
    </vehicle>
    <vehicle depart="0.71" departLane="random" departPos="random_free" departSpeed="speedLimit" id="38">
        <route edges="361 368 370 373" />
    </vehicle>
    <vehicle depart="0.73" departLane="random" departPos="random_free" departSpeed="speedLimit" id="39">
        <route edges="361 368 370 373" />
    </vehicle>
    <vehicle depart="0.75" departLane="random" departPos="random_free" departSpeed="speedLimit" id="40">
        <route edges="361 368 370 373" />
    </vehicle>
    <vType accel="1.11" decel="3.19" guiShape="bicycle" id="bicycle" impatience="0.08" lcCooperative="2.55" lcImpatience="0.00" lcKeepRight="0.83" lcMaxSpeedLatStanding="0.00" lcSigma="0.14" lcSpeedGain="13.06" lcStrategic="1.77" lcSublane="2.00" length="2.00" maxSpeed="6.94" minGap="1.00" minGapLat="1.50" probability="0.20" sigma="0.56" speedFactor="normc(0.96,0.15,0.20,2.00)" vClass="bicycle" width="0.68" />
    <vehicle depart="0.77" departLane="random" departPos="random_free" departSpeed="speedLimit" id="41">
        <route edges="361 368 346 347" />
    </vehicle>
    <vehicle depart="0.78" departLane="random" departPos="random_free" departSpeed="speedLimit" id="42">
        <route edges="361 368 346 347" />
    </vehicle>
    <vehicle depart="0.80" departLane="random" departPos="random_free" departSpeed="speedLimit" id="43">
        <route edges="361 368 370 373" />
    </vehicle>
    <vehicle depart="0.82" departLane="random" departPos="random_free" departSpeed="speedLimit" id="44">
        <route edges="361 368 370 373" />
    </vehicle>
    <vehicle depart="0.84" departLane="random" departPos="random_free" departSpeed="speedLimit" id="45">
        <route edges="361 368 346 347" />
    </vehicle>
    <vehicle depart="0.86" departLane="random" departPos="random_free" departSpeed="speedLimit" id="46">
        <route edges="361 368 346 347" />
    </vehicle>
    <vehicle depart="0.88" departLane="random" departPos="random_free" departSpeed="speedLimit" id="47">
        <route edges="361 368 346 347" />
    </vehicle>
    <vehicle depart="0.90" departLane="random" departPos="random_free" departSpeed="speedLimit" id="48">
        <route edges="361 368 370 373" />
    </vehicle>
    <vehicle depart="0.91" departLane="random" departPos="random_free" departSpeed="speedLimit" id="49">
        <route edges="361 368 370 373" />
    </vehicle>
    <vehicle depart="0.93" departLane="random" departPos="random_free" departSpeed="speedLimit" id="50">
        <route edges="361 368 370 373" />
    </vehicle>
    <vehicle depart="0.95" departLane="random" departPos="random_free" departSpeed="speedLimit" id="51">
        <route edges="361 368 370 373" />
    </vehicle>
    <vehicle depart="0.97" departLane="random" departPos="random_free" departSpeed="speedLimit" id="52">
        <route edges="361 368 370 373" />
    </vehicle>
    <vehicle depart="0.99" departLane="random" departPos="random_free" departSpeed="speedLimit" id="53">
        <route edges="361 368 370 373" />
    </vehicle>
    <vehicle depart="1.01" departLane="random" departPos="random_free" departSpeed="speedLimit" id="54">
        <route edges="361 368 346 347" />
    </vehicle>
    <vehicle depart="1.03" departLane="random" departPos="random_free" departSpeed="speedLimit" id="55">
        <route edges="361 368 346 347" />
    </vehicle>
    <vehicle depart="1.05" departLane="random" departPos="random_free" departSpeed="speedLimit" id="56">
        <route edges="361 368 370 373" />
    </vehicle>
    <vehicle depart="1.06" departLane="random" departPos="random_free" departSpeed="speedLimit" id="57">
        <route edges="361 368 370 373" />
    </vehicle>
    <vehicle depart="1.08" departLane="random" departPos="random_free" departSpeed="speedLimit" id="58">
        <route edges="361 368 346 347" />
    </vehicle>
    <vehicle depart="1.10" departLane="random" departPos="random_free" departSpeed="speedLimit" id="59">
        <route edges="361 368 370 373" />
    </vehicle>
    <vehicle depart="1.12" departLane="random" departPos="random_free" departSpeed="speedLimit" id="60">
        <route edges="361 368 370 373" />
    </vehicle>
    <vehicle depart="1.14" departLane="random" departPos="random_free" departSpeed="speedLimit" id="61">
        <route edges="361 368 346 347" />
    </vehicle>
    <vehicle depart="1.16" departLane="random" departPos="random_free" departSpeed="speedLimit" id="62">
        <route edges="361 368 346 347" />
    </vehicle>
    <vehicle depart="1.18" departLane="random" departPos="random_free" departSpeed="speedLimit" id="63">
        <route edges="361 368 370 373" />
    </vehicle>
    <vehicle depart="1.19" departLane="random" departPos="random_free" departSpeed="speedLimit" id="64">
        <route edges="361 368 370 373" />
    </vehicle>
    <vehicle depart="1.21" departLane="random" departPos="random_free" departSpeed="speedLimit" id="65">
        <route edges="361 368 346 347" />
    </vehicle>
    <vehicle depart="1.23" departLane="random" departPos="random_free" departSpeed="speedLimit" id="66">
        <route edges="361 368 346 347" />
    </vehicle>
    <vehicle depart="1.25" departLane="random" departPos="random_free" departSpeed="speedLimit" id="67">
        <route edges="361 368 346 347" />
    </vehicle>
    <vehicle depart="1.27" departLane="random" departPos="random_free" departSpeed="speedLimit" id="68">
        <route edges="361 368 346 347" />
    </vehicle>
    <vehicle depart="1.31" departLane="random" departPos="random_free" departSpeed="speedLimit" id="70">
        <route edges="361 368 370 373" />
    </vehicle>
    <vehicle depart="1.32" departLane="random" departPos="random_free" departSpeed="speedLimit" id="71">
        <route edges="361 368 346 347" />
    </vehicle>
    <vehicle depart="1.34" departLane="random" departPos="random_free" departSpeed="speedLimit" id="72">
        <route edges="361 368 346 347" />
    </vehicle>
    <vehicle depart="1.36" departLane="random" departPos="random_free" departSpeed="speedLimit" id="73">
        <route edges="361 368 346 347" />
    </vehicle>
    <vehicle depart="1.38" departLane="random" departPos="random_free" departSpeed="speedLimit" id="74">
        <route edges="361 368 346 347" />
    </vehicle>
    <vehicle depart="1.40" departLane="random" departPos="random_free" departSpeed="speedLimit" id="75">
        <route edges="361 368 346 347" />
    </vehicle>
    <vehicle depart="1.42" departLane="random" departPos="random_free" departSpeed="speedLimit" id="76">
        <route edges="361 368 370 373" />
    </vehicle>
    <vehicle depart="1.44" departLane="random" departPos="random_free" departSpeed="speedLimit" id="77">
        <route edges="361 368 370 373" />
    </vehicle>
    <vehicle depart="1.46" departLane="random" departPos="random_free" departSpeed="speedLimit" id="78">
        <route edges="361 368 346 347" />
    </vehicle>
    <vehicle depart="1.47" departLane="random" departPos="random_free" departSpeed="speedLimit" id="79">
        <route edges="361 368 370 373" />
    </vehicle>
    <vehicle depart="1.49" departLane="random" departPos="random_free" departSpeed="speedLimit" id="80">
        <route edges="361 368 346 347" />
    </vehicle>
    <vehicle depart="1.51" departLane="random" departPos="random_free" departSpeed="speedLimit" id="81">
        <route edges="361 368 370 373" />
    </vehicle>
    <vehicle depart="1.53" departLane="random" departPos="random_free" departSpeed="speedLimit" id="82">
        <route edges="361 368 370 373" />
    </vehicle>
    <vehicle depart="1.55" departLane="random" departPos="random_free" departSpeed="speedLimit" id="83">
        <route edges="361 368 370 373" />
    </vehicle>
    <vehicle depart="1.57" departLane="random" departPos="random_free" departSpeed="speedLimit" id="84">
        <route edges="361 368 346 347" />
    </vehicle>
    <vehicle depart="1.59" departLane="random" departPos="random_free" departSpeed="speedLimit" id="85">
        <route edges="361 368 370 373" />
    </vehicle>
    <vehicle depart="1.60" departLane="random" departPos="random_free" departSpeed="speedLimit" id="86">
        <route edges="361 368 346 347" />
    </vehicle>
    <vehicle depart="1.62" departLane="random" departPos="random_free" departSpeed="speedLimit" id="87">
        <route edges="361 368 370 373" />
    </vehicle>
    <vehicle depart="1.64" departLane="random" departPos="random_free" departSpeed="speedLimit" id="88">
        <route edges="361 368 346 347" />
    </vehicle>
    <vehicle depart="1.66" departLane="random" departPos="random_free" departSpeed="speedLimit" id="89">
        <route edges="361 368 346 347" />
    </vehicle>
    <vehicle depart="1.68" departLane="random" departPos="random_free" departSpeed="speedLimit" id="90">
        <route edges="361 368 370 373" />
    </vehicle>
    <vehicle depart="1.70" departLane="random" departPos="random_free" departSpeed="speedLimit" id="91">
        <route edges="361 368 346 347" />
    </vehicle>
    <vehicle depart="1.72" departLane="random" departPos="random_free" departSpeed="speedLimit" id="92">
        <route edges="361 368 346 347" />
    </vehicle>
    <vehicle depart="1.74" departLane="random" departPos="random_free" departSpeed="speedLimit" id="93">
        <route edges="361 368 346 347" />
    </vehicle>
    <vehicle depart="1.75" departLane="random" departPos="random_free" departSpeed="speedLimit" id="94">
        <route edges="361 368 370 373" />
    </vehicle>
    <vehicle depart="1.77" departLane="random" departPos="random_free" departSpeed="speedLimit" id="95">
        <route edges="361 368 346 347" />
    </vehicle>
    <vehicle depart="1.79" departLane="random" departPos="random_free" departSpeed="speedLimit" id="96">
        <route edges="361 368 370 373" />
    </vehicle>
    <vehicle depart="1.81" departLane="random" departPos="random_free" departSpeed="speedLimit" id="97">
        <route edges="361 368 346 347" />
    </vehicle>
    <vehicle depart="1.83" departLane="random" departPos="random_free" departSpeed="speedLimit" id="98">
        <route edges="361 368 370 373" />
    </vehicle>
    <vehicle depart="1.85" departLane="random" departPos="random_free" departSpeed="speedLimit" id="99">
        <route edges="361 368 346 347" />
    </vehicle>
    <vehicle depart="1.87" departLane="random" departPos="random_free" departSpeed="speedLimit" id="100">
        <route edges="361 368 370 373" />
    </vehicle>
    <vehicle depart="1.88" departLane="random" departPos="random_free" departSpeed="speedLimit" id="101">
        <route edges="361 368 370 373" />
    </vehicle>
    <vehicle depart="1.90" departLane="random" departPos="random_free" departSpeed="speedLimit" id="102">
        <route edges="361 368 370 373" />
    </vehicle>
    <vehicle depart="1.92" departLane="random" departPos="random_free" departSpeed="speedLimit" id="103">
        <route edges="361 368 346 347" />
    </vehicle>
    <vehicle depart="1.94" departLane="random" departPos="random_free" departSpeed="speedLimit" id="104">
        <route edges="361 368 346 347" />
    </vehicle>
    <vehicle depart="1.96" departLane="random" departPos="random_free" departSpeed="speedLimit" id="105">
        <route edges="361 368 346 347" />
    </vehicle>
    <vehicle depart="1.98" departLane="random" departPos="random_free" departSpeed="speedLimit" id="106">
        <route edges="361 368 346 347" />
    </vehicle>
    <vehicle depart="2.00" departLane="random" departPos="random_free" departSpeed="speedLimit" id="107">
        <route edges="361 368 346 347" />
    </vehicle>
    <vehicle depart="2.02" departLane="random" departPos="random_free" departSpeed="speedLimit" id="108">
        <route edges="361 368 346 347" />
    </vehicle>
    <vehicle depart="2.03" departLane="random" departPos="random_free" departSpeed="speedLimit" id="109">
        <route edges="361 368 370 373" />
    </vehicle>
    <vehicle depart="2.05" departLane="random" departPos="random_free" departSpeed="speedLimit" id="110">
        <route edges="361 368 370 373" />
    </vehicle>
    <vehicle depart="2.07" departLane="random" departPos="random_free" departSpeed="speedLimit" id="111">
        <route edges="361 368 370 373" />
    </vehicle>
    <vehicle depart="2.09" departLane="random" departPos="random_free" departSpeed="speedLimit" id="112">
        <route edges="361 368 370 373" />
    </vehicle>
    <vehicle depart="2.11" departLane="random" departPos="random_free" departSpeed="speedLimit" id="113">
        <route edges="361 368 370 373" />
    </vehicle>
    <vehicle depart="2.13" departLane="random" departPos="random_free" departSpeed="speedLimit" id="114">
        <route edges="361 368 370 373" />
    </vehicle>
    <vehicle depart="2.15" departLane="random" departPos="random_free" departSpeed="speedLimit" id="115">
        <route edges="361 368 346 347" />
    </vehicle>
    <vehicle depart="2.16" departLane="random" departPos="random_free" departSpeed="speedLimit" id="116">
        <route edges="361 368 370 373" />
    </vehicle>
    <vehicle depart="2.18" departLane="random" departPos="random_free" departSpeed="speedLimit" id="117">
        <route edges="361 368 370 373" />
    </vehicle>
    <vehicle depart="2.20" departLane="random" departPos="random_free" departSpeed="speedLimit" id="118">
        <route edges="361 368 346 347" />
    </vehicle>
    <vehicle depart="2.22" departLane="random" departPos="random_free" departSpeed="speedLimit" id="119">
        <route edges="361 368 346 347" />
    </vehicle>
    <vehicle depart="2.24" departLane="random" departPos="random_free" departSpeed="speedLimit" id="120">
        <route edges="361 368 370 373" />
    </vehicle>
    <vehicle depart="2.26" departLane="random" departPos="random_free" departSpeed="speedLimit" id="121">
        <route edges="361 368 346 347" />
    </vehicle>
    <vehicle depart="2.28" departLane="random" departPos="random_free" departSpeed="speedLimit" id="122">
        <route edges="361 368 346 347" />
    </vehicle>
    <vehicle depart="2.30" departLane="random" departPos="random_free" departSpeed="speedLimit" id="123">
        <route edges="361 368 346 347" />
    </vehicle>
    <vehicle depart="2.33" departLane="random" departPos="random_free" departSpeed="speedLimit" id="125">
        <route edges="361 368 346 347" />
    </vehicle>
    <vehicle depart="2.35" departLane="random" departPos="random_free" departSpeed="speedLimit" id="126">
        <route edges="361 368 346 347" />
    </vehicle>
    <vehicle depart="2.37" departLane="random" departPos="random_free" departSpeed="speedLimit" id="127">
        <route edges="361 368 346 347" />
    </vehicle>
    <vehicle depart="2.39" departLane="random" departPos="random_free" departSpeed="speedLimit" id="128">
        <route edges="361 368 370 373" />
    </vehicle>
    <vehicle depart="2.41" departLane="random" departPos="random_free" departSpeed="speedLimit" id="129">
        <route edges="361 368 370 373" />
    </vehicle>
    <vehicle depart="2.43" departLane="random" departPos="random_free" departSpeed="speedLimit" id="130">
        <route edges="361 368 370 373" />
    </vehicle>
    <vehicle depart="2.44" departLane="random" departPos="random_free" departSpeed="speedLimit" id="131">
        <route edges="361 368 346 347" />
    </vehicle>
    <vehicle depart="2.46" departLane="random" departPos="random_free" departSpeed="speedLimit" id="132">
        <route edges="361 368 370 373" />
    </vehicle>
    <vehicle depart="2.48" departLane="random" departPos="random_free" departSpeed="speedLimit" id="133">
        <route edges="361 368 346 347" />
    </vehicle>
    <vehicle depart="2.50" departLane="random" departPos="random_free" departSpeed="speedLimit" id="134">
        <route edges="361 368 370 373" />
    </vehicle>
    <vehicle depart="2.52" departLane="random" departPos="random_free" departSpeed="speedLimit" id="135">
        <route edges="361 368 370 373" />
    </vehicle>
    <vehicle depart="2.54" departLane="random" departPos="random_free" departSpeed="speedLimit" id="136">
        <route edges="361 368 346 347" />
    </vehicle>
    <vehicle depart="2.56" departLane="random" departPos="random_free" departSpeed="speedLimit" id="137">
        <route edges="361 368 370 373" />
    </vehicle>
    <vehicle depart="2.58" departLane="random" departPos="random_free" departSpeed="speedLimit" id="138">
        <route edges="361 368 346 347" />
    </vehicle>
    <vehicle depart="2.59" departLane="random" departPos="random_free" departSpeed="speedLimit" id="139">
        <route edges="361 368 346 347" />
    </vehicle>
    <vehicle depart="2.61" departLane="random" departPos="random_free" departSpeed="speedLimit" id="140">
        <route edges="361 368 370 373" />
    </vehicle>
    <vehicle depart="2.63" departLane="random" departPos="random_free" departSpeed="speedLimit" id="141">
        <route edges="361 368 346 347" />
    </vehicle>
    <vehicle depart="2.65" departLane="random" departPos="random_free" departSpeed="speedLimit" id="142">
        <route edges="361 368 346 347" />
    </vehicle>
    <vehicle depart="2.67" departLane="random" departPos="random_free" departSpeed="speedLimit" id="143">
        <route edges="361 368 346 347" />
    </vehicle>
    <vehicle depart="2.69" departLane="random" departPos="random_free" departSpeed="speedLimit" id="144">
        <route edges="361 368 346 347" />
    </vehicle>
    <vehicle depart="2.71" departLane="random" departPos="random_free" departSpeed="speedLimit" id="145">
        <route edges="361 368 346 347" />
    </vehicle>
    <vehicle depart="2.72" departLane="random" departPos="random_free" departSpeed="speedLimit" id="146">
        <route edges="361 368 370 373" />
    </vehicle>
    <vehicle depart="2.74" departLane="random" departPos="random_free" departSpeed="speedLimit" id="147">
        <route edges="361 368 346 347" />
    </vehicle>
    <vehicle depart="2.76" departLane="random" departPos="random_free" departSpeed="speedLimit" id="148">
        <route edges="361 368 346 347" />
    </vehicle>
    <vehicle depart="2.78" departLane="random" departPos="random_free" departSpeed="speedLimit" id="149">
        <route edges="361 368 346 347" />
    </vehicle>
    <vehicle depart="2.80" departLane="random" departPos="random_free" departSpeed="speedLimit" id="150">
        <route edges="361 368 370 373" />
    </vehicle>
    <vehicle depart="2.82" departLane="random" departPos="random_free" departSpeed="speedLimit" id="151">
        <route edges="361 368 346 347" />
    </vehicle>
    <vehicle depart="2.84" departLane="random" departPos="random_free" departSpeed="speedLimit" id="152">
        <route edges="361 368 370 373" />
    </vehicle>
    <vehicle depart="2.86" departLane="random" departPos="random_free" departSpeed="speedLimit" id="153">
        <route edges="361 368 346 347" />
    </vehicle>
    <vehicle depart="2.87" departLane="random" departPos="random_free" departSpeed="speedLimit" id="154">
        <route edges="361 368 370 373" />
    </vehicle>
    <vehicle depart="2.89" departLane="random" departPos="random_free" departSpeed="speedLimit" id="155">
        <route edges="361 368 370 373" />
    </vehicle>
    <vehicle depart="2.91" departLane="random" departPos="random_free" departSpeed="speedLimit" id="156">
        <route edges="361 368 346 347" />
    </vehicle>
    <vehicle depart="2.93" departLane="random" departPos="random_free" departSpeed="speedLimit" id="157">
        <route edges="361 368 370 373" />
    </vehicle>
    <vehicle depart="2.95" departLane="random" departPos="random_free" departSpeed="speedLimit" id="158">
        <route edges="361 368 346 347" />
    </vehicle>
    <vehicle depart="2.97" departLane="random" departPos="random_free" departSpeed="speedLimit" id="159">
        <route edges="361 368 370 373" />
    </vehicle>
    <vehicle depart="2.99" departLane="random" departPos="random_free" departSpeed="speedLimit" id="160">
        <route edges="361 368 346 347" />
    </vehicle>
    <vehicle depart="3.00" departLane="random" departPos="random_free" departSpeed="speedLimit" id="161">
        <route edges="361 368 370 373" />
    </vehicle>
    <vehicle depart="3.02" departLane="random" departPos="random_free" departSpeed="speedLimit" id="162">
        <route edges="361 368 370 373" />
    </vehicle>
    <vehicle depart="3.04" departLane="random" departPos="random_free" departSpeed="speedLimit" id="163">
        <route edges="361 368 370 373" />
    </vehicle>
    <vehicle depart="3.08" departLane="random" departPos="random_free" departSpeed="speedLimit" id="165">
        <route edges="361 368 346 347" />
    </vehicle>
    <vehicle depart="3.10" departLane="random" departPos="random_free" departSpeed="speedLimit" id="166">
        <route edges="361 368 370 373" />
    </vehicle>
    <vehicle depart="3.12" departLane="random" departPos="random_free" departSpeed="speedLimit" id="167">
        <route edges="361 368 346 347" />
    </vehicle>
    <vehicle depart="3.14" departLane="random" departPos="random_free" departSpeed="speedLimit" id="168">
        <route edges="361 368 346 347" />
    </vehicle>
    <vehicle depart="3.15" departLane="random" departPos="random_free" departSpeed="speedLimit" id="169">
        <route edges="361 368 346 347" />
    </vehicle>
    <vehicle depart="3.17" departLane="random" departPos="random_free" departSpeed="speedLimit" id="170">
        <route edges="361 368 346 347" />
    </vehicle>
    <vehicle depart="3.19" departLane="random" departPos="random_free" departSpeed="speedLimit" id="171">
        <route edges="361 368 346 347" />
    </vehicle>
    <vehicle depart="3.21" departLane="random" departPos="random_free" departSpeed="speedLimit" id="172">
        <route edges="361 368 370 373" />
    </vehicle>
    <vehicle depart="3.23" departLane="random" departPos="random_free" departSpeed="speedLimit" id="173">
        <route edges="361 368 346 347" />
    </vehicle>
    <vehicle depart="3.25" departLane="random" departPos="random_free" departSpeed="speedLimit" id="174">
        <route edges="361 368 370 373" />
    </vehicle>
    <vehicle depart="3.27" departLane="random" departPos="random_free" departSpeed="speedLimit" id="175">
        <route edges="361 368 370 373" />
    </vehicle>