<!-- generated on 2021-07-31 15:55:20 by Eclipse SUMO netconvert Version 1.9.2
<configuration xmlns:xsi="http://www.w3.org/2001/XMLSchema-instance" xsi:noNamespaceSchemaLocation="http://sumo.dlr.de/xsd/netconvertConfiguration.xsd">

    <input>
        <node-files value="/home/klischatm/SCENARIO_FACTORY/out_scenarios/20210731-153631/DEU_Frankfurt-147/DEU_Frankfurt-147.nod.xml"/>
        <edge-files value="/home/klischatm/SCENARIO_FACTORY/out_scenarios/20210731-153631/DEU_Frankfurt-147/DEU_Frankfurt-147.edg.xml"/>
        <connection-files value="/home/klischatm/SCENARIO_FACTORY/out_scenarios/20210731-153631/DEU_Frankfurt-147/DEU_Frankfurt-147.con.xml"/>
        <tllogic-files value="/home/klischatm/SCENARIO_FACTORY/out_scenarios/20210731-153631/DEU_Frankfurt-147/DEU_Frankfurt-147.tll.xml"/>
        <type-files value="/home/klischatm/SCENARIO_FACTORY/out_scenarios/20210731-153631/DEU_Frankfurt-147/DEU_Frankfurt-147.typ.xml"/>
    </input>

    <output>
        <output-file value="/home/klischatm/SCENARIO_FACTORY/out_scenarios/20210731-153631/DEU_Frankfurt-147/DEU_Frankfurt-147.net.xml"/>
    </output>

    <processing>
        <geometry.remove.keep-edges.explicit value="true"/>
        <geometry.remove.min-length value="0"/>
        <geometry.avoid-overlap value="true"/>
        <offset.disable-normalization value="true"/>
    </processing>

    <tls_building>
        <tls.guess-signals value="true"/>
        <tls.green.time value="50"/>
        <tls.yellow.time value="10"/>
        <tls.red.time value="50"/>
        <tls.allred.time value="50"/>
        <tls.left-green.time value="50"/>
        <tls.crossing-min.time value="50"/>
        <tls.crossing-clearance.time value="50"/>
        <tls.group-signals value="true"/>
    </tls_building>

    <junctions>
        <no-turnarounds value="true"/>
        <junctions.internal-link-detail value="20"/>
    </junctions>

    <report>
        <aggregate-warnings value="5"/>
    </report>

    <random_number>
        <seed value="529"/>
    </random_number>

</configuration>
--><net xmlns:xsi="http://www.w3.org/2001/XMLSchema-instance" version="1.9" junctionCornerDetail="5" junctionLinkDetail="20" limitTurnSpeed="5.50" xsi:noNamespaceSchemaLocation="http://sumo.dlr.de/xsd/net_file.xsd">

    <location netOffset="0.00,0.00" convBoundary="464414.84,5542113.78,470365.67,5544678.07" origBoundary="464412.01,5542109.05,470366.14,5544698.62" projParameter="!"/>

    <type id="highway.bridleway" priority="1" speed="2.78" allow="pedestrian" oneway="1"/>
    <type id="highway.bus_guideway" priority="1" speed="27.78" allow="bus" oneway="1"/>
    <type id="highway.cycleway" priority="1" speed="8.33" allow="bicycle"/>
    <type id="highway.footway" priority="1" speed="2.78" allow="pedestrian" oneway="1"/>
    <type id="highway.ford" priority="1" speed="2.78" allow="army"/>
    <type id="highway.living_street" priority="2" speed="2.78" disallow="tram rail_urban rail rail_electric ship"/>
    <type id="highway.living_street_speed_27.78" priority="2" speed="27.78" disallow="tram rail_urban rail rail_electric ship"/>
    <type id="highway.motorway" priority="14" speed="39.44" disallow="pedestrian moped bicycle tram rail_urban rail rail_electric ship" oneway="1"/>
    <type id="highway.motorway_link" priority="9" speed="22.22" disallow="pedestrian moped bicycle tram rail_urban rail rail_electric ship" oneway="1"/>
    <type id="highway.motorway_speed_22.22" priority="14" speed="22.22" disallow="pedestrian moped bicycle tram rail_urban rail rail_electric ship" oneway="1"/>
    <type id="highway.motorway_speed_33.33" priority="14" speed="33.33" disallow="pedestrian moped bicycle tram rail_urban rail rail_electric ship" oneway="1"/>
    <type id="highway.path" priority="1" speed="2.78" allow="pedestrian bicycle"/>
    <type id="highway.pedestrian" priority="1" speed="2.78" allow="pedestrian" oneway="1"/>
    <type id="highway.primary" priority="12" speed="27.78" disallow="pedestrian tram rail_urban rail rail_electric ship"/>
    <type id="highway.primary_link" priority="7" speed="22.22" disallow="pedestrian tram rail_urban rail rail_electric ship"/>
    <type id="highway.raceway" priority="15" speed="83.33" allow="vip"/>
    <type id="highway.residential" priority="3" speed="13.89" disallow="pedestrian tram rail_urban rail rail_electric ship"/>
    <type id="highway.secondary" priority="11" speed="27.78" disallow="pedestrian tram rail_urban rail rail_electric ship"/>
    <type id="highway.secondary_link" priority="6" speed="22.22" disallow="pedestrian tram rail_urban rail rail_electric ship"/>
    <type id="highway.service" priority="1" speed="5.56" allow="pedestrian delivery bicycle"/>
    <type id="highway.stairs" priority="1" speed="1.39" allow="pedestrian" oneway="1"/>
    <type id="highway.step" priority="1" speed="1.39" allow="pedestrian" oneway="1"/>
    <type id="highway.steps" priority="1" speed="1.39" allow="pedestrian" oneway="1"/>
    <type id="highway.tertiary" priority="10" speed="22.22" disallow="pedestrian tram rail_urban rail rail_electric ship"/>
    <type id="highway.tertiary_link" priority="5" speed="22.22" disallow="pedestrian tram rail_urban rail rail_electric ship"/>
    <type id="highway.track" priority="1" speed="5.56" allow="pedestrian motorcycle moped bicycle"/>
    <type id="highway.trunk" priority="13" speed="27.78" disallow="pedestrian bicycle tram rail_urban rail rail_electric ship"/>
    <type id="highway.trunk_link" priority="8" speed="22.22" disallow="pedestrian bicycle tram rail_urban rail rail_electric ship"/>
    <type id="highway.unclassified" priority="4" speed="13.89" disallow="tram rail_urban rail rail_electric ship"/>
    <type id="highway.unsurfaced" priority="1" speed="8.33" disallow="tram rail_urban rail rail_electric ship"/>
    <type id="railway.highspeed" priority="21" speed="69.44" allow="rail" oneway="1"/>
    <type id="railway.light_rail" priority="19" speed="27.78" allow="rail_urban" oneway="1"/>
    <type id="railway.preserved" priority="16" speed="27.78" allow="rail" oneway="1"/>
    <type id="railway.rail" priority="20" speed="44.44" allow="rail" oneway="1"/>
    <type id="railway.subway" priority="18" speed="27.78" allow="rail_urban" oneway="1"/>
    <type id="railway.tram" priority="17" speed="13.89" allow="tram" oneway="1"/>

    <edge id=":1_0" function="internal">
        <lane id=":1_0_0" index="0" disallow="tram rail_urban rail rail_electric ship" speed="27.78" length="7.80" width="3.74" shape="466442.67,5543348.88 466443.16,5543349.18 466443.62,5543349.45 466444.02,5543349.69 466444.40,5543349.91 466444.74,5543350.10 466445.06,5543350.28 466445.36,5543350.44 466445.65,5543350.58 466445.93,5543350.71 466446.21,5543350.84 466446.50,5543350.95 466446.81,5543351.07 466447.12,5543351.19 466447.47,5543351.31 466447.84,5543351.43 466448.25,5543351.56 466448.71,5543351.71 466449.21,5543351.87 466449.76,5543352.04"/>
        <lane id=":1_0_1" index="1" disallow="tram rail_urban rail rail_electric ship" speed="18.00" length="8.12" width="4.46" shape="466440.76,5543352.01 466441.28,5543352.31 466441.75,5543352.59 466442.17,5543352.83 466442.57,5543353.05 466442.93,5543353.24 466443.27,5543353.40 466443.59,5543353.55 466443.90,5543353.67 466444.21,5543353.78 466444.52,5543353.88 466444.83,5543353.96 466445.16,5543354.03 466445.51,5543354.10 466445.89,5543354.17 466446.30,5543354.23 466446.74,5543354.30 466447.23,5543354.37 466447.77,5543354.44 466448.37,5543354.53"/>
        <lane id=":1_0_2" index="2" disallow="tram rail_urban rail rail_electric ship" speed="27.78" length="7.86" width="3.72" shape="466440.76,5543352.01 466447.49,5543356.07"/>
        <lane id=":1_0_3" index="3" disallow="tram rail_urban rail rail_electric ship" speed="27.78" length="7.98" width="3.50" shape="466438.91,5543355.05 466445.74,5543359.18"/>
        <lane id=":1_0_4" index="4" disallow="tram rail_urban rail rail_electric ship" speed="27.78" length="8.11" width="3.58" shape="466437.10,5543358.02 466444.04,5543362.21"/>
    </edge>
    <edge id=":2_0" function="internal">
        <lane id=":2_0_0" index="0" disallow="pedestrian moped bicycle tram rail_urban rail rail_electric ship" speed="30.56" length="430.06" width="3.95" shape="467134.30,5543767.97 467140.21,5543771.60 467150.82,5543778.13 467165.56,5543787.22 467183.85,5543798.53 467205.14,5543811.71 467228.84,5543826.41 467254.38,5543842.30 467281.19,5543859.02 467308.70,5543876.23 467336.34,5543893.58 467363.54,5543910.74 467389.73,5543927.35 467414.33,5543943.06 467436.77,5543957.55 467456.48,5543970.45 467472.89,5543981.43 467485.42,5543990.13 467493.52,5543996.22 467496.60,5543999.35"/>
        <lane id=":2_0_1" index="1" disallow="pedestrian moped bicycle tram rail_urban rail rail_electric ship" speed="30.56" length="429.57" width="3.70" shape="467132.48,5543770.98 467138.37,5543774.62 467148.96,5543781.17 467163.66,5543790.29 467181.90,5543801.63 467203.13,5543814.85 467226.76,5543829.59 467252.23,5543845.52 467278.97,5543862.29 467306.41,5543879.54 467333.97,5543896.94 467361.09,5543914.14 467387.21,5543930.80 467411.74,5543946.56 467434.12,5543961.08 467453.78,5543974.01 467470.15,5543985.01 467482.66,5543993.74 467490.73,5543999.84 467493.81,5544002.97"/>
    </edge>
    <edge id=":2_2" function="internal">
        <lane id=":2_2_0" index="0" disallow="tram rail_urban rail rail_electric ship" speed="27.78" length="430.61" width="3.92" shape="467130.62,5543774.04 467136.53,5543777.56 467147.14,5543783.79 467161.91,5543792.39 467180.26,5543803.04 467201.64,5543815.41 467225.48,5543829.19 467251.22,5543844.05 467278.30,5543859.67 467306.16,5543875.71 467334.23,5543891.86 467361.96,5543907.80 467388.78,5543923.20 467414.13,5543937.73 467437.46,5543951.08 467458.18,5543962.92 467475.75,5543972.92 467489.61,5543980.76 467499.18,5543986.12 467503.92,5543988.67"/>
        <lane id=":2_2_1" index="1" disallow="tram rail_urban rail rail_electric ship" speed="27.78" length="430.59" width="3.68" shape="467128.83,5543777.00 467134.74,5543780.52 467145.35,5543786.74 467160.11,5543795.35 467178.46,5543806.01 467199.83,5543818.40 467223.66,5543832.19 467249.39,5543847.07 467276.46,5543862.70 467304.31,5543878.76 467332.37,5543894.94 467360.09,5543910.89 467386.90,5543926.31 467412.24,5543940.86 467435.55,5543954.22 467456.27,5543966.07 467473.83,5543976.07 467487.69,5543983.92 467497.26,5543989.28 467502.00,5543991.82"/>
        <lane id=":2_2_2" index="2" disallow="tram rail_urban rail rail_electric ship" speed="27.78" length="430.59" width="3.94" shape="467127.04,5543779.94 467132.95,5543783.46 467143.57,5543789.69 467158.33,5543798.29 467176.67,5543808.95 467198.04,5543821.35 467221.87,5543835.15 467247.59,5543850.03 467274.66,5543865.67 467302.50,5543881.74 467330.56,5543897.92 467358.27,5543913.88 467385.07,5543929.31 467410.41,5543943.86 467433.72,5543957.23 467454.43,5543969.08 467471.99,5543979.10 467485.84,5543986.95 467495.42,5543992.31 467500.15,5543994.86"/>
    </edge>
    <edge id=":4_0" function="internal">
        <lane id=":4_0_0" index="0" disallow="pedestrian moped bicycle tram rail_urban rail rail_electric ship" speed="27.78" length="7.94" width="4.00" shape="467620.56,5544117.89 467628.02,5544120.61"/>
        <lane id=":4_0_1" index="1" disallow="pedestrian moped bicycle tram rail_urban rail rail_electric ship" speed="27.78" length="7.93" width="3.70" shape="467620.56,5544117.89 467627.92,5544120.84"/>
        <lane id=":4_0_2" index="2" disallow="pedestrian moped bicycle tram rail_urban rail rail_electric ship" speed="27.78" length="7.96" width="3.79" shape="467619.24,5544121.21 467626.64,5544124.15"/>
    </edge>
    <edge id=":5_0" function="internal">
        <lane id=":5_0_0" index="0" disallow="tram rail_urban rail rail_electric ship" speed="27.78" length="8.00" width="4.04" shape="468989.45,5544471.39 468997.19,5544473.40"/>
        <lane id=":5_0_1" index="1" disallow="tram rail_urban rail rail_electric ship" speed="27.78" length="8.00" width="3.92" shape="468989.45,5544471.39 468997.14,5544473.58"/>
        <lane id=":5_0_2" index="2" disallow="tram rail_urban rail rail_electric ship" speed="27.78" length="8.01" width="3.75" shape="468988.44,5544474.91 468996.14,5544477.13"/>
        <lane id=":5_0_3" index="3" disallow="tram rail_urban rail rail_electric ship" speed="27.78" length="8.04" width="3.93" shape="468987.43,5544478.45 468995.15,5544480.68"/>
    </edge>

    <edge id="346" from="2" to="5" priority="2" type="highway.living_street_speed_27.78" spreadType="center" length="1563.38">
        <lane id="346_0" index="0" disallow="tram rail_urban rail rail_electric ship" speed="27.78" length="1563.38" width="3.92" customShape="1" shape="467503.92,5543988.67 467509.78,5543991.54 467521.04,5543996.95 467532.79,5544002.50 467544.57,5544007.99 467561.83,5544015.92 467579.12,5544023.77 467628.60,5544045.21 467629.57,5544045.62 467653.58,5544055.55 467677.68,5544065.28 467727.85,5544084.56 467728.06,5544084.64 467749.64,5544092.56 467771.31,5544100.26 467825.41,5544118.49 467826.23,5544118.76 467848.11,5544125.77 467870.02,5544132.74 467887.15,5544138.19 467904.30,5544143.60 467913.35,5544146.45 467922.41,5544149.30 467935.75,5544153.49 467949.09,5544157.69 467978.15,5544166.82 468007.23,5544175.89 468019.15,5544179.62 468031.07,5544183.33 468047.28,5544188.37 468063.49,5544193.43 468090.67,5544201.90 468117.86,5544210.33 468157.93,5544222.76 468198.00,5544235.17 468225.70,5544243.64 468253.39,5544252.12 468277.75,5544259.56 468302.11,5544267.01 468323.61,5544273.55 468345.10,5544280.13 468362.29,5544285.41 468379.48,5544290.68 468425.35,5544304.62 468471.24,5544318.49 468502.32,5544327.85 468533.42,5544337.18 468553.03,5544343.06 468572.64,5544348.95 468587.47,5544353.39 468602.30,5544357.83 468627.18,5544365.30 468652.06,5544372.73 468672.66,5544378.81 468693.24,5544384.92 468712.87,5544390.75 468732.51,5544396.54 468763.66,5544405.68 468794.82,5544414.80 468812.07,5544419.87 468829.31,5544424.94 468849.92,5544430.99 468870.54,5544436.99 468888.77,5544442.28 468906.98,5544447.60 468937.67,5544456.54 468968.38,5544465.40 468980.86,5544469.00 468989.45,5544471.39"/>
        <lane id="346_1" index="1" disallow="tram rail_urban rail rail_electric ship" speed="27.78" length="1564.36" width="3.68" customShape="1" shape="467502.00,5543991.82 467514.84,5543998.04 467531.56,5544005.96 467548.34,5544013.76 467570.16,5544023.74 467592.08,5544033.51 467610.43,5544041.47 467628.85,5544049.26 467641.78,5544054.63 467654.73,5544059.95 467665.85,5544064.46 467677.00,5544068.91 467691.43,5544074.55 467705.90,5544080.12 467756.54,5544098.86 467757.48,5544099.20 467781.53,5544107.64 467805.69,5544115.79 467828.96,5544123.43 467852.29,5544130.88 467872.30,5544137.24 467892.31,5544143.57 467912.32,5544149.90 467932.35,5544156.18 467949.99,5544161.69 467967.64,5544167.22 467986.71,5544173.18 468005.79,5544179.12 468017.71,5544182.86 468029.64,5544186.57 468045.38,5544191.47 468061.12,5544196.39 468083.54,5544203.38 468105.96,5544210.37 468126.48,5544216.73 468147.00,5544223.10 468176.11,5544232.13 468205.24,5544241.10 468233.43,5544249.72 468261.61,5544258.35 468283.59,5544265.09 468305.57,5544271.80 468330.42,5544279.40 468355.26,5544287.02 468367.20,5544290.69 468379.14,5544294.34 468428.87,5544309.43 468478.61,5544324.46 468507.32,5544333.09 468536.04,5544341.70 468556.61,5544347.87 468577.20,5544354.04 468599.21,5544360.63 468621.23,5544367.23 468641.81,5544373.39 468662.41,5544379.52 468684.92,5544386.19 468707.44,5544392.86 468737.64,5544401.75 468767.84,5544410.61 468788.46,5544416.66 468809.07,5544422.72 468827.29,5544428.05 468845.51,5544433.40 468875.73,5544442.21 468905.95,5544451.02 468944.34,5544462.16 468982.74,5544473.26 468987.54,5544474.65 468988.44,5544474.91"/>
        <lane id="346_2" index="2" disallow="tram rail_urban rail rail_electric ship" speed="27.78" length="1565.34" width="3.94" customShape="1" shape="467500.15,5543994.86 467527.08,5544007.92 467540.29,5544014.11 467555.74,5544021.22 467571.23,5544028.26 467587.22,5544035.39 467603.25,5544042.42 467614.73,5544047.38 467626.26,5544052.24 467639.20,5544057.60 467652.15,5544062.93 467702.18,5544082.65 467723.94,5544090.87 467732.40,5544093.96 467740.86,5544097.05 467753.08,5544101.49 467765.34,5544105.83 467818.89,5544123.98 467829.80,5544127.52 467842.19,5544131.48 467854.58,5544135.43 467881.74,5544144.04 467908.92,5544152.62 467918.46,5544155.63 467928.00,5544158.62 467959.48,5544168.48 467990.97,5544178.32 468025.32,5544189.07 468059.67,5544199.80 468096.90,5544211.39 468134.13,5544222.96 468149.89,5544227.85 468165.64,5544232.75 468181.40,5544237.62 468197.17,5544242.46 468210.55,5544246.57 468223.94,5544250.66 468235.88,5544254.33 468247.83,5544258.00 468266.95,5544263.86 468286.06,5544269.72 468309.49,5544276.87 468332.91,5544284.05 468352.03,5544289.90 468371.15,5544295.74 468394.58,5544302.87 468418.03,5544309.97 468431.91,5544314.15 468445.78,5544318.36 468458.70,5544322.27 468471.63,5544326.14 468501.78,5544335.21 468531.94,5544344.28 468549.18,5544349.44 468566.42,5544354.61 468598.50,5544364.24 468630.58,5544373.84 468660.28,5544382.71 468689.99,5544391.52 468714.92,5544398.90 468739.86,5544406.22 468770.56,5544415.22 468801.25,5544424.25 468824.29,5544430.96 468847.32,5544437.70 468869.87,5544444.29 468892.43,5544450.85 468913.07,5544456.85 468933.71,5544462.86 468951.95,5544468.14 468970.19,5544473.45 468980.75,5544476.52 468987.43,5544478.45"/>
    </edge>
    <edge id="347" from="5" to="6" priority="2" type="highway.living_street_speed_27.78" spreadType="center" length="1393.91">